commons/src/test/resources/SmallBusBranch/SmallBusBranch.xiidm
<?xml version="1.0" encoding="UTF-8"?>
<iidm:network xmlns:iidm="http://www.powsybl.org/schema/iidm/1_2" id="urn:uuid:2399cbd2-9a39-11e0-aa80-0800200c9a66_EU" caseDate="2030-01-02T09:00:00.000Z" forecastDistance="7993438" sourceFormat="CGMES">
    <iidm:property name="CGMESModelDetail" value="bus-branch"/>
    <iidm:substation id="_047c929a-c766-11e1-8775-005056c00008" name="Godrics Hollow" country="GB" geographicalTags="_0472a781-c766-11e1-8775-005056c00008">
        <iidm:voltageLevel id="_0460f448-c766-11e1-8775-005056c00008" name="GOD132KV" nominalV="132.0" topologyKind="BUS_BREAKER">
            <iidm:busBreakerTopology>
                <iidm:bus id="_045a1670-c766-11e1-8775-005056c00008" name="Jay" v="126.706635" angle="-16.31623"/>
            </iidm:busBreakerTopology>
            <iidm:load id="_047abdd7-c766-11e1-8775-005056c00008" name="Jay LD" loadType="UNDEFINED" p0="14.0" q0="8.0" bus="_045a1670-c766-11e1-8775-005056c00008" connectableBus="_045a1670-c766-11e1-8775-005056c00008" p="14.0" q="8.0"></iidm:load>
        </iidm:voltageLevel>
    </iidm:substation>
    <iidm:substation id="_04819ba1-c766-11e1-8775-005056c00008" name="Nurmengard" country="GB" geographicalTags="_0472a781-c766-11e1-8775-005056c00008">
        <iidm:voltageLevel id="_0476c639-c766-11e1-8775-005056c00008" name="NUR132KV" nominalV="132.0" topologyKind="BUS_BREAKER">
            <iidm:busBreakerTopology>
                <iidm:bus id="_04483c26-c766-11e1-8775-005056c00008" name="Madison" v="128.132538" angle="-14.5066376"/>
            </iidm:busBreakerTopology>
            <iidm:load id="_045b00d5-c766-11e1-8775-005056c00008" name="Madison LD" loadType="UNDEFINED" p0="62.0" q0="13.0" bus="_04483c26-c766-11e1-8775-005056c00008" connectableBus="_04483c26-c766-11e1-8775-005056c00008" p="62.0" q="13.0"></iidm:load>
            <iidm:load id="_04689566-c766-11e1-8775-005056c00008" name="Madison NegG LD" loadType="UNDEFINED" p0="12.0" q0="4.0" bus="_04483c26-c766-11e1-8775-005056c00008" connectableBus="_04483c26-c766-11e1-8775-005056c00008" p="26.0" q="8.0"></iidm:load>
        </iidm:voltageLevel>
    </iidm:substation>
    <iidm:substation id="_04542302-c766-11e1-8775-005056c00008" name="Gringotts" country="GB" geographicalTags="_0472a781-c766-11e1-8775-005056c00008">
        <iidm:voltageLevel id="_0450eeb4-c766-11e1-8775-005056c00008" name="GRI132KV" nominalV="132.0" topologyKind="BUS_BREAKER">
            <iidm:busBreakerTopology>
                <iidm:bus id="_04549837-c766-11e1-8775-005056c00008" name="Torrey" v="126.06" angle="-14.6406355"/>
            </iidm:busBreakerTopology>
            <iidm:generator id="_046c3ee7-c766-11e1-8775-005056c00008" name="Torrey SM" energySource="THERMAL" minP="20.0" maxP="80.0" ratedS="100.0" voltageRegulatorOn="true" targetP="48.0" targetV="126.06" targetQ="0.0" bus="_04549837-c766-11e1-8775-005056c00008" connectableBus="_04549837-c766-11e1-8775-005056c00008" p="-48.0" q="-0.0">
                <iidm:property name="CGMES.GeneratingUnit" value="_b97aee41-3115-4cfd-9071-b52fb44d0b66"/>
                <iidm:property name="CGMES.RegulatingControl" value="_5005c073-28d1-4a7d-b257-649dec43ec73"/>
                <iidm:minMaxReactiveLimits minQ="-30.0" maxQ="85.0"/>
            </iidm:generator>
            <iidm:load id="_044afb44-c766-11e1-8775-005056c00008" name="Torrey LD" loadType="UNDEFINED" p0="113.0" q0="32.0" bus="_04549837-c766-11e1-8775-005056c00008" connectableBus="_04549837-c766-11e1-8775-005056c00008" p="113.0" q="32.0"></iidm:load>
        </iidm:voltageLevel>
    </iidm:substation>
    <iidm:substation id="_045de701-c766-11e1-8775-005056c00008" name="Needlehole" country="GB" geographicalTags="_0472a781-c766-11e1-8775-005056c00008">
        <iidm:voltageLevel id="_04808a33-c766-11e1-8775-005056c00008" name="NEE132KV" nominalV="132.0" topologyKind="BUS_BREAKER">
            <iidm:busBreakerTopology>
                <iidm:bus id="_047ba835-c766-11e1-8775-005056c00008" name="Darrah" v="123.719063" angle="-8.168152"/>
            </iidm:busBreakerTopology>
            <iidm:load id="_04481515-c766-11e1-8775-005056c00008" name="Darrah LD" loadType="UNDEFINED" p0="68.0" q0="36.0" bus="_047ba835-c766-11e1-8775-005056c00008" connectableBus="_047ba835-c766-11e1-8775-005056c00008" p="68.0" q="36.0"></iidm:load>
        </iidm:voltageLevel>
    </iidm:substation>
    <iidm:substation id="_0472f5a8-c766-11e1-8775-005056c00008" name="Dale" country="GB" geographicalTags="_0472a781-c766-11e1-8775-005056c00008">
        <iidm:voltageLevel id="_0467d214-c766-11e1-8775-005056c00008" name="DAL132KV" nominalV="132.0" topologyKind="BUS_BREAKER">
            <iidm:busBreakerTopology>
                <iidm:bus id="_04845ac5-c766-11e1-8775-005056c00008" name="Smythe" v="130.725067" angle="2.296253"/>
            </iidm:busBreakerTopology>
            <iidm:load id="_044c0cb3-c766-11e1-8775-005056c00008" name="Smythe LD" loadType="UNDEFINED" p0="5.0" q0="3.0" bus="_04845ac5-c766-11e1-8775-005056c00008" connectableBus="_04845ac5-c766-11e1-8775-005056c00008" p="5.0" q="3.0"></iidm:load>
        </iidm:voltageLevel>
    </iidm:substation>
    <iidm:substation id="_047a48a3-c766-11e1-8775-005056c00008" name="Hogsmeade" country="GB" geographicalTags="_0472a781-c766-11e1-8775-005056c00008">
        <iidm:voltageLevel id="_047e675c-c766-11e1-8775-005056c00008" name="HOG132KV" nominalV="132.0" topologyKind="BUS_BREAKER">
            <iidm:busBreakerTopology>
                <iidm:bus id="_045b9d15-c766-11e1-8775-005056c00008" name="Sunnysde" v="125.9138" angle="-14.74322"/>
            </iidm:busBreakerTopology>
            <iidm:load id="_0450a093-c766-11e1-8775-005056c00008" name="Sunnysde LD" loadType="UNDEFINED" p0="84.0" q0="18.0" bus="_045b9d15-c766-11e1-8775-005056c00008" connectableBus="_045b9d15-c766-11e1-8775-005056c00008" p="84.0" q="18.0"></iidm:load>
        </iidm:voltageLevel>
    </iidm:substation>
    <iidm:substation id="_046f4c23-c766-11e1-8775-005056c00008" name="Barad-dûr" country="GB" geographicalTags="_0472a781-c766-11e1-8775-005056c00008">
        <iidm:voltageLevel id="_047dcb11-c766-11e1-8775-005056c00008" name="BAR132KV" nominalV="132.0" topologyKind="BUS_BREAKER">
            <iidm:busBreakerTopology>
                <iidm:bus id="_0486f2d6-c766-11e1-8775-005056c00008" name="Bellefnt" v="126.403" angle="-8.388306"/>
            </iidm:busBreakerTopology>
            <iidm:load id="_044b2251-c766-11e1-8775-005056c00008" name="Bellefnt LD" loadType="UNDEFINED" p0="68.0" q0="27.0" bus="_0486f2d6-c766-11e1-8775-005056c00008" connectableBus="_0486f2d6-c766-11e1-8775-005056c00008" p="68.0" q="27.0"></iidm:load>
            <iidm:shunt id="_0449e9d5-c766-11e1-8775-005056c00008" name="Bellefnt SC" bPerSection="1.378E-4" maximumSectionCount="10" currentSectionCount="5" voltageRegulatorOn="true" targetV="126.403" targetDeadband="1.0" bus="_0486f2d6-c766-11e1-8775-005056c00008" connectableBus="_0486f2d6-c766-11e1-8775-005056c00008" q="-11.0086479">
                <iidm:property name="CGMES.RegulatingControl" value="_6cc38790-c6a6-4309-99f4-a3258e24e785"/>
            </iidm:shunt>
        </iidm:voltageLevel>
    </iidm:substation>
    <iidm:substation id="_047a6fb6-c766-11e1-8775-005056c00008" name="Waymoot" country="GB" geographicalTags="_0472a781-c766-11e1-8775-005056c00008">
        <iidm:voltageLevel id="_04740714-c766-11e1-8775-005056c00008" name="WAY132KV" nominalV="132.0" topologyKind="BUS_BREAKER">
            <iidm:busBreakerTopology>
                <iidm:bus id="_04550d63-c766-11e1-8775-005056c00008" name="Fieldale" v="126.066" angle="-11.6781759"/>
            </iidm:busBreakerTopology>
            <iidm:load id="_04682035-c766-11e1-8775-005056c00008" name="Fieldale LD" loadType="UNDEFINED" p0="39.0" q0="30.0" bus="_04550d63-c766-11e1-8775-005056c00008" connectableBus="_04550d63-c766-11e1-8775-005056c00008" p="39.0" q="30.0"></iidm:load>
            <iidm:shunt id="_045c6067-c766-11e1-8775-005056c00008" name="Fieldale SC" bPerSection="6.88E-5" maximumSectionCount="10" currentSectionCount="5" voltageRegulatorOn="true" targetV="126.066" targetDeadband="1.0" bus="_04550d63-c766-11e1-8775-005056c00008" connectableBus="_04550d63-c766-11e1-8775-005056c00008" q="-5.46706724">
                <iidm:property name="CGMES.RegulatingControl" value="_2d222dd9-7306-4afd-baa5-fd303b0eeb40"/>
            </iidm:shunt>
        </iidm:voltageLevel>
    </iidm:substation>
    <iidm:substation id="_0488eea9-c766-11e1-8775-005056c00008" name="Upbourn" country="GB" geographicalTags="_0472a781-c766-11e1-8775-005056c00008">
        <iidm:voltageLevel id="_047147f4-c766-11e1-8775-005056c00008" name="UPB132KV" nominalV="132.0" topologyKind="BUS_BREAKER">
            <iidm:busBreakerTopology>
                <iidm:bus id="_04862f81-c766-11e1-8775-005056c00008" name="Muskngum1" v="138.599991" angle="-2.44860148"/>
            </iidm:busBreakerTopology>
            <iidm:generator id="_047f0391-c766-11e1-8775-005056c00008" name="Muskngum SM" energySource="THERMAL" minP="200.0" maxP="400.0" ratedS="500.0" voltageRegulatorOn="true" targetP="392.0" targetV="138.599991" targetQ="0.0" bus="_04862f81-c766-11e1-8775-005056c00008" connectableBus="_04862f81-c766-11e1-8775-005056c00008" p="-392.0" q="-0.0">
                <iidm:property name="CGMES.GeneratingUnit" value="_d9948603-709f-41dd-a0ff-2ebda091255a"/>
                <iidm:property name="CGMES.RegulatingControl" value="_23727856-fd9b-4124-a981-4e862148f3bb"/>
                <iidm:minMaxReactiveLimits minQ="-150.0" maxQ="450.0"/>
            </iidm:generator>
            <iidm:load id="_047e1936-c766-11e1-8775-005056c00008" name="Muskngum LD" loadType="UNDEFINED" p0="39.0" q0="18.0" bus="_04862f81-c766-11e1-8775-005056c00008" connectableBus="_04862f81-c766-11e1-8775-005056c00008" p="39.0" q="18.0"></iidm:load>
        </iidm:voltageLevel>
        <iidm:voltageLevel id="_0463da78-c766-11e1-8775-005056c00008" name="UPB220KV" nominalV="220.0" topologyKind="BUS_BREAKER">
            <iidm:busBreakerTopology>
                <iidm:bus id="_0458ddf2-c766-11e1-8775-005056c00008" name="Muskngum2" v="221.1" angle="-2.31989479"/>
            </iidm:busBreakerTopology>
            <iidm:generator id="_0458ddf1-c766-11e1-8775-005056c00008" name="Muskngum SM" energySource="THERMAL" minP="200.0" maxP="400.0" ratedS="500.0" voltageRegulatorOn="true" targetP="391.0" targetV="221.1" targetQ="0.0" bus="_0458ddf2-c766-11e1-8775-005056c00008" connectableBus="_0458ddf2-c766-11e1-8775-005056c00008" p="-391.0" q="-0.0">
                <iidm:property name="CGMES.GeneratingUnit" value="_5036c3a5-56f9-489c-9ecb-8c15aa7c70c5"/>
                <iidm:property name="CGMES.RegulatingControl" value="_12b01822-ca11-4cf8-a6b4-2f8ff805ca20"/>
                <iidm:minMaxReactiveLimits minQ="-150.0" maxQ="450.0"/>
            </iidm:generator>
        </iidm:voltageLevel>
        <iidm:twoWindingsTransformer id="_045cae83-c766-11e1-8775-005056c00008" name="65-66" r="0.0" x="6.44688" g="0.0" b="0.0" ratedU1="220.0" ratedU2="132.0" bus1="_0458ddf2-c766-11e1-8775-005056c00008" connectableBus1="_0458ddf2-c766-11e1-8775-005056c00008" voltageLevelId1="_0463da78-c766-11e1-8775-005056c00008" bus2="_04862f81-c766-11e1-8775-005056c00008" connectableBus2="_04862f81-c766-11e1-8775-005056c00008" voltageLevelId2="_047147f4-c766-11e1-8775-005056c00008">
            <iidm:ratioTapChanger lowTapPosition="1" tapPosition="1" loadTapChangingCapabilities="false">
                <iidm:step r="0.0" x="0.0" g="0.0" b="0.0" rho="1.06951871657754"/>
                <iidm:step r="0.0" x="0.0" g="0.0" b="0.0" rho="1.0"/>
                <iidm:step r="0.0" x="0.0" g="0.0" b="0.0" rho="0.9389671361502347"/>
                <iidm:step r="0.0" x="0.0" g="0.0" b="0.0" rho="0.8849557522123894"/>
                <iidm:step r="0.0" x="0.0" g="0.0" b="0.0" rho="0.8368200836820083"/>
                <iidm:step r="0.0" x="0.0" g="0.0" b="0.0" rho="0.7936507936507936"/>
                <iidm:step r="0.0" x="0.0" g="0.0" b="0.0" rho="0.7547169811320755"/>
                <iidm:step r="0.0" x="0.0" g="0.0" b="0.0" rho="0.7194244604316546"/>
                <iidm:step r="0.0" x="0.0" g="0.0" b="0.0" rho="0.6872852233676976"/>
                <iidm:step r="0.0" x="0.0" g="0.0" b="0.0" rho="0.6578947368421053"/>
                <iidm:step r="0.0" x="0.0" g="0.0" b="0.0" rho="0.6309148264984227"/>
                <iidm:step r="0.0" x="0.0" g="0.0" b="0.0" rho="0.6060606060606061"/>
                <iidm:step r="0.0" x="0.0" g="0.0" b="0.0" rho="0.5830903790087463"/>
            </iidm:ratioTapChanger>
            <iidm:currentLimits1 permanentLimit="1312.0">
                <iidm:temporaryLimit name="_069c77f0-1cf0-491a-ae17-8f71e0c7cc0b" acceptableDuration="900" value="1508.0"/>
                <iidm:temporaryLimit name="_a7b7f7b8-4ee3-45f5-ba3e-edb3678e0866" acceptableDuration="60" value="1837.0"/>
            </iidm:currentLimits1>
            <iidm:currentLimits2 permanentLimit="2186.0">
                <iidm:temporaryLimit name="_85b581c6-1005-4dc0-a758-ad5cfa9b05c4" acceptableDuration="900" value="2514.0"/>
                <iidm:temporaryLimit name="_981fee8c-aaa5-4946-b2d2-292bb3a4e7df" acceptableDuration="60" value="3061.0"/>
            </iidm:currentLimits2>
        </iidm:twoWindingsTransformer>
    </iidm:substation>
    <iidm:substation id="_04773b6b-c766-11e1-8775-005056c00008" name="Fornost Erain" country="GB" geographicalTags="_0472a781-c766-11e1-8775-005056c00008">
        <iidm:voltageLevel id="_046b2d70-c766-11e1-8775-005056c00008" name="FOR132KV" nominalV="132.0" topologyKind="BUS_BREAKER">
            <iidm:busBreakerTopology>
                <iidm:bus id="_0474f17a-c766-11e1-8775-005056c00008" name="Adams" v="126.359306" angle="-17.8946"/>
            </iidm:busBreakerTopology>
            <iidm:load id="_0453d4e2-c766-11e1-8775-005056c00008" name="Adams LD" loadType="UNDEFINED" p0="18.0" q0="3.0" bus="_0474f17a-c766-11e1-8775-005056c00008" connectableBus="_0474f17a-c766-11e1-8775-005056c00008" p="18.0" q="3.0"></iidm:load>
        </iidm:voltageLevel>
    </iidm:substation>
    <iidm:substation id="_04887979-c766-11e1-8775-005056c00008" name="The Wall" country="GB" geographicalTags="_0472a781-c766-11e1-8775-005056c00008">
        <iidm:voltageLevel id="_0475b4c0-c766-11e1-8775-005056c00008" name="THE132KV" nominalV="132.0" topologyKind="BUS_BREAKER">
            <iidm:busBreakerTopology>
                <iidm:bus id="_04597a36-c766-11e1-8775-005056c00008" name="Claytor" v="133.319992" angle="-5.7111764"/>
            </iidm:busBreakerTopology>
            <iidm:generator id="_046bf0c4-c766-11e1-8775-005056c00008" name="Claytor SM" energySource="THERMAL" minP="0.0" maxP="160.0" ratedS="200.0" voltageRegulatorOn="true" targetP="40.0" targetV="133.319992" targetQ="0.0" bus="_04597a36-c766-11e1-8775-005056c00008" connectableBus="_04597a36-c766-11e1-8775-005056c00008" p="-40.0" q="-0.0">
                <iidm:property name="CGMES.GeneratingUnit" value="_e56da2eb-bb6a-4133-953c-40073c5bc5f4"/>
                <iidm:property name="CGMES.RegulatingControl" value="_d41be6b4-155e-4c8f-b46b-16b50c49f0f4"/>
                <iidm:minMaxReactiveLimits minQ="-60.0" maxQ="170.0"/>
            </iidm:generator>
            <iidm:load id="_048433b6-c766-11e1-8775-005056c00008" name="Claytor LD" loadType="UNDEFINED" p0="23.0" q0="16.0" bus="_04597a36-c766-11e1-8775-005056c00008" connectableBus="_04597a36-c766-11e1-8775-005056c00008" p="23.0" q="16.0"></iidm:load>
        </iidm:voltageLevel>
    </iidm:substation>
    <iidm:substation id="_04795e41-c766-11e1-8775-005056c00008" name="Havens of the Falas" country="GB" geographicalTags="_0472a781-c766-11e1-8775-005056c00008">
        <iidm:voltageLevel id="_045d23b4-c766-11e1-8775-005056c00008" name="HAV132KV" nominalV="132.0" topologyKind="BUS_BREAKER">
            <iidm:busBreakerTopology>
                <iidm:bus id="_04725962-c766-11e1-8775-005056c00008" name="N.Newark" v="130.323" angle="-14.23693"/>
            </iidm:busBreakerTopology>
            <iidm:load id="_0449e9d7-c766-11e1-8775-005056c00008" name="N.Newark LD" loadType="UNDEFINED" p0="53.0" q0="22.0" bus="_04725962-c766-11e1-8775-005056c00008" connectableBus="_04725962-c766-11e1-8775-005056c00008" p="53.0" q="22.0"></iidm:load>
            <iidm:shunt id="_04684741-c766-11e1-8775-005056c00008" name="N.Newark SC" bPerSection="1.148E-4" maximumSectionCount="10" currentSectionCount="5" voltageRegulatorOn="true" targetV="130.323" targetDeadband="1.0" bus="_04725962-c766-11e1-8775-005056c00008" connectableBus="_04725962-c766-11e1-8775-005056c00008" q="-9.748864">
                <iidm:property name="CGMES.RegulatingControl" value="_eae61817-d3cb-488f-a1f3-13bc8e31431b"/>
            </iidm:shunt>
        </iidm:voltageLevel>
    </iidm:substation>
    <iidm:substation id="_047e404a-c766-11e1-8775-005056c00008" name="Minas Anor" country="GB" geographicalTags="_0472a781-c766-11e1-8775-005056c00008">
        <iidm:voltageLevel id="_048433b5-c766-11e1-8775-005056c00008" name="MNA132KV" nominalV="132.0" topologyKind="BUS_BREAKER">
            <iidm:busBreakerTopology>
                <iidm:bus id="_0472a783-c766-11e1-8775-005056c00008" name="Hillsbro" v="131.421951" angle="-9.167447"/>
            </iidm:busBreakerTopology>
            <iidm:load id="_0448d86a-c766-11e1-8775-005056c00008" name="Hillsbro NegG LD" loadType="UNDEFINED" p0="12.0" q0="0.0" bus="_0472a783-c766-11e1-8775-005056c00008" connectableBus="_0472a783-c766-11e1-8775-005056c00008" p="12.0" q="0.0"></iidm:load>
        </iidm:voltageLevel>
    </iidm:substation>
    <iidm:substation id="_0449c2ca-c766-11e1-8775-005056c00008" name="Avallonë" country="GB" geographicalTags="_0472a781-c766-11e1-8775-005056c00008">
        <iidm:voltageLevel id="_045e8349-c766-11e1-8775-005056c00008" name="AVA132KV" nominalV="132.0" topologyKind="BUS_BREAKER">
            <iidm:busBreakerTopology>
                <iidm:bus id="_046bf0cb-c766-11e1-8775-005056c00008" name="S.Kenton" v="129.64537" angle="-18.6851273"/>
            </iidm:busBreakerTopology>
            <iidm:load id="_047dcb12-c766-11e1-8775-005056c00008" name="S.Kenton LD" loadType="UNDEFINED" p0="18.0" q0="7.0" bus="_046bf0cb-c766-11e1-8775-005056c00008" connectableBus="_046bf0cb-c766-11e1-8775-005056c00008" p="18.0" q="7.0"></iidm:load>
        </iidm:voltageLevel>
    </iidm:substation>
    <iidm:substation id="_0468bc71-c766-11e1-8775-005056c00008" name="Vale of Arryn" country="GB" geographicalTags="_0472a781-c766-11e1-8775-005056c00008">
        <iidm:voltageLevel id="_0484f70a-c766-11e1-8775-005056c00008" name="VLA132KV" nominalV="132.0" topologyKind="BUS_BREAKER">
            <iidm:busBreakerTopology>
                <iidm:bus id="_04689561-c766-11e1-8775-005056c00008" name="Hazard" v="129.887009" angle="1.19663978"/>
            </iidm:busBreakerTopology>
            <iidm:load id="_044afb49-c766-11e1-8775-005056c00008" name="Hazard LD" loadType="UNDEFINED" p0="21.0" q0="10.0" bus="_04689561-c766-11e1-8775-005056c00008" connectableBus="_04689561-c766-11e1-8775-005056c00008" p="21.0" q="10.0"></iidm:load>
        </iidm:voltageLevel>
        <iidm:voltageLevel id="_04555b88-c766-11e1-8775-005056c00008" name="VALE33KV" nominalV="33.0" topologyKind="BUS_BREAKER">
            <iidm:busBreakerTopology>
                <iidm:bus id="_04505279-c766-11e1-8775-005056c00008" name="Pinevlle" v="33.495" angle="1.43515372"/>
            </iidm:busBreakerTopology>
            <iidm:generator id="_047fc6e6-c766-11e1-8775-005056c00008" name="Pinevlle SM" energySource="THERMAL" minP="0.0" maxP="40.0" ratedS="50.0" voltageRegulatorOn="true" targetP="4.0" targetV="33.495" targetQ="0.0" bus="_04505279-c766-11e1-8775-005056c00008" connectableBus="_04505279-c766-11e1-8775-005056c00008" p="-4.0" q="-0.0">
                <iidm:property name="CGMES.GeneratingUnit" value="_9a6bdb3c-346d-4426-8127-5f6cbf0150b2"/>
                <iidm:property name="CGMES.RegulatingControl" value="_98f667da-02d1-4a31-b826-44314a1fbbfe"/>
                <iidm:minMaxReactiveLimits minQ="-15.0" maxQ="45.0"/>
            </iidm:generator>
        </iidm:voltageLevel>
        <iidm:twoWindingsTransformer id="_045e3525-c766-11e1-8775-005056c00008" name="86-87" r="0.3079691875" x="2.25858593125" g="0.0" b="-0.0040863184" ratedU1="132.0" ratedU2="33.0" bus1="_04689561-c766-11e1-8775-005056c00008" connectableBus1="_04689561-c766-11e1-8775-005056c00008" voltageLevelId1="_0484f70a-c766-11e1-8775-005056c00008" bus2="_04505279-c766-11e1-8775-005056c00008" connectableBus2="_04505279-c766-11e1-8775-005056c00008" voltageLevelId2="_04555b88-c766-11e1-8775-005056c00008">
            <iidm:ratioTapChanger lowTapPosition="1" tapPosition="31" loadTapChangingCapabilities="false">
                <iidm:step r="-78.46097048774399" x="-78.46097048774399" g="364.2734712959033" b="364.2734712959033" rho="0.4641016"/>
                <iidm:step r="-76.77098544465856" x="-76.77098544465856" g="330.4960925559595" b="330.4960925559595" rho="0.48196488000000004"/>
                <iidm:step r="-75.01718104710143" x="-75.01718104710143" g="300.2750858041092" b="300.2750858041092" rho="0.49982816"/>
                <iidm:step r="-73.19955729507262" x="-73.19955729507262" g="273.1281647135425" b="273.1281647135425" rho="0.5176914400000001"/>
                <iidm:step r="-71.31811418857215" x="-71.31811418857215" g="248.65210975826625" b="248.65210975826625" rho="0.53555472"/>
                <iidm:step r="-69.37285172760001" x="-69.37285172760001" g="226.5077084898438" b="226.5077084898438" rho="0.553418"/>
                <iidm:step r="-67.36376991215616" x="-67.36376991215616" g="206.40793906293555" b="206.40793906293555" rho="0.57128128"/>
                <iidm:step r="-65.29086874224063" x="-65.29086874224063" g="188.10862264852744" b="188.10862264852744" rho="0.58914456"/>
                <iidm:step r="-63.15414821785343" x="-63.15414821785343" g="171.40097232995538" b="171.40097232995538" rho="0.6070078400000001"/>
                <iidm:step r="-60.953608338994556" x="-60.953608338994556" g="156.1056111616768" b="156.1056111616768" rho="0.62487112"/>
                <iidm:step r="-58.689249105664" x="-58.689249105664" g="142.0677374172608" b="142.0677374172608" rho="0.6427344"/>
                <iidm:step r="-56.36107051786177" x="-56.36107051786177" g="129.1531923140571" b="129.1531923140571" rho="0.66059768"/>
                <iidm:step r="-53.96907257558784" x="-53.96907257558784" g="117.24524269951107" b="117.24524269951107" rho="0.67846096"/>
                <iidm:step r="-51.51325527884223" x="-51.51325527884223" g="106.24193390397649" b="106.24193390397649" rho="0.69632424"/>
                <iidm:step r="-48.99361862762495" x="-48.99361862762495" g="96.05390013838502" b="96.05390013838502" rho="0.7141875200000001"/>
                <iidm:step r="-46.410162621936" x="-46.410162621936" g="86.60254423711527" b="86.60254423711527" rho="0.7320508"/>
                <iidm:step r="-43.762887261775354" x="-43.762887261775354" g="77.81851722275475" b="77.81851722275475" rho="0.7499140799999999"/>
                <iidm:step r="-41.05179254714304" x="-41.05179254714304" g="69.64044255285229" b="69.64044255285229" rho="0.76777736"/>
                <iidm:step r="-38.276878478039045" x="-38.276878478039045" g="62.01384106022605" b="62.01384106022605" rho="0.78564064"/>
                <iidm:step r="-35.438145054463355" x="-35.438145054463355" g="54.89022129918419" b="54.89022129918419" rho="0.80350392"/>
                <iidm:step r="-32.53559227641599" x="-32.53559227641599" g="48.2263068397802" b="48.2263068397802" rho="0.8213672000000001"/>
                <iidm:step r="-29.569220143896956" x="-29.569220143896956" g="41.9833774442222" b="41.9833774442222" rho="0.83923048"/>
                <iidm:step r="-26.53902865690624" x="-26.53902865690624" g="36.12670533984335" b="36.12670533984335" rho="0.85709376"/>
                <iidm:step r="-23.445017815443848" x="-23.445017815443848" g="30.6250712186483" b="30.6250712186483" rho="0.8749570400000001"/>
                <iidm:step r="-20.287187619509762" x="-20.287187619509762" g="25.45034733271443" b="25.45034733271443" rho="0.8928203200000001"/>
                <iidm:step r="-17.06553806910399" x="-17.06553806910399" g="20.57713726209933" b="20.57713726209933" rho="0.9106836"/>
                <iidm:step r="-13.780069164226571" x="-13.780069164226571" g="15.982463718828566" b="15.982463718828566" rho="0.92854688"/>
                <iidm:step r="-10.430780904877434" x="-10.430780904877434" g="11.64549720345327" b="11.64549720345327" rho="0.94641016"/>
                <iidm:step r="-7.017673291056637" x="-7.017673291056637" g="7.5473195169912355" b="7.5473195169912355" rho="0.96427344"/>
                <iidm:step r="-3.5407463227641656" x="-3.5407463227641656" g="3.670717103630028" b="3.670717103630028" rho="0.9821367199999999"/>
                <iidm:step r="0.0" x="0.0" g="0.0" b="0.0" rho="1.0"/>
                <iidm:step r="3.604565677235838" x="3.604565677235838" g="-3.479157171958336" b="-3.479157171958336" rho="1.01786328"/>
                <iidm:step r="7.272950708943382" x="7.272950708943382" g="-6.779855183322592" b="-6.779855183322592" rho="1.03572656"/>
                <iidm:step r="11.005155095122543" x="11.005155095122543" g="-9.914093706451743" b="-9.914093706451743" rho="1.0535898399999999"/>
                <iidm:step r="14.801178835773431" x="14.801178835773431" g="-12.892880531259154" b="-12.892880531259154" rho="1.07145312"/>
                <iidm:step r="18.661021930895984" x="18.661021930895984" g="-15.726328348801433" b="-15.726328348801433" rho="1.0893164"/>
                <iidm:step r="22.584684380490238" x="22.584684380490238" g="-18.423740693731116" b="-18.423740693731116" rho="1.10717968"/>
                <iidm:step r="26.572166184556178" x="26.572166184556178" g="-20.993688411566747" b="-20.993688411566747" rho="1.12504296"/>
                <iidm:step r="30.62346734309378" x="30.62346734309378" g="-23.444077826121855" b="-23.444077826121855" rho="1.14290624"/>
                <iidm:step r="34.73858785610307" x="34.73858785610307" g="-25.78221162092249" b="-25.78221162092249" rho="1.16076952"/>
                <iidm:step r="38.91752772358399" x="38.91752772358399" g="-28.01484331122096" b="-28.01484331122096" rho="1.1786328"/>
                <iidm:step r="43.16028694553664" x="43.16028694553664" g="-30.148226066322692" b="-30.148226066322692" rho="1.19649608"/>
                <iidm:step r="47.466865521960955" x="47.466865521960955" g="-32.18815654211632" b="-32.18815654211632" rho="1.21435936"/>
                <iidm:step r="51.83726345285697" x="51.83726345285697" g="-34.140014298236885" b="-34.140014298236885" rho="1.23222264"/>
                <iidm:step r="56.27148073822465" x="56.27148073822465" g="-36.0087973009527" b="-36.0087973009527" rho="1.25008592"/>
                <iidm:step r="60.76951737806397" x="60.76951737806397" g="-37.799153949787" b="-37.799153949787" rho="1.2679491999999999"/>
                <iidm:step r="65.33137337237503" x="65.33137337237503" g="-39.51541201150582" b="-39.51541201150582" rho="1.28581248"/>
                <iidm:step r="69.95704872115776" x="69.95704872115776" g="-41.161604798123854" b="-41.161604798123854" rho="1.30367576"/>
                <iidm:step r="74.64654342441217" x="74.64654342441217" g="-42.74149488490709" b="-42.74149488490709" rho="1.32153904"/>
                <iidm:step r="79.39985748213824" x="79.39985748213824" g="-44.25859562906487" b="-44.25859562906487" rho="1.33940232"/>
                <iidm:step r="84.21699089433596" x="84.21699089433596" g="-45.716190719151165" b="-45.716190719151165" rho="1.3572655999999998"/>
                <iidm:step r="89.09794366100547" x="89.09794366100547" g="-47.11735195848069" b="-47.11735195848069" rho="1.37512888"/>
                <iidm:step r="94.04271578214653" x="94.04271578214653" g="-48.46495546255347" b="-48.46495546255347" rho="1.39299216"/>
                <iidm:step r="99.05130725775935" x="99.05130725775935" g="-49.76169643010378" b="-49.76169643010378" rho="1.41085544"/>
                <iidm:step r="104.12371808784383" x="104.12371808784383" g="-51.01010262954087" b="-51.01010262954087" rho="1.42871872"/>
                <iidm:step r="109.25994827240002" x="109.25994827240002" g="-52.21254672689349" b="-52.21254672689349" rho="1.446582"/>
                <iidm:step r="114.45999781142788" x="114.45999781142788" g="-53.371257567609966" b="-53.371257567609966" rho="1.46444528"/>
                <iidm:step r="119.72386670492732" x="119.72386670492732" g="-54.48833051245521" b="-54.48833051245521" rho="1.4823085599999999"/>
                <iidm:step r="125.05155495289854" x="125.05155495289854" g="-55.5657369170681" b="-55.5657369170681" rho="1.50017184"/>
                <iidm:step r="130.44306255534144" x="130.44306255534144" g="-56.60533283531382" b="-56.60533283531382" rho="1.51803512"/>
                <iidm:step r="135.898389512256" x="135.898389512256" g="-57.60886701822754" b="-57.60886701822754" rho="1.5358984"/>
            </iidm:ratioTapChanger>
            <iidm:currentLimits1 permanentLimit="2186.0">
                <iidm:temporaryLimit name="_580d3b53-5508-4d8d-97cc-4ea463e0cdb9" acceptableDuration="900" value="2514.0"/>
                <iidm:temporaryLimit name="_a867e68a-58d1-49cb-955f-bb8e59cf2a11" acceptableDuration="60" value="3061.0"/>
            </iidm:currentLimits1>
            <iidm:currentLimits2 permanentLimit="8747.0">
                <iidm:temporaryLimit name="_1a7f23f9-e2c0-46a6-a93c-687f2209e33d" acceptableDuration="900" value="10059.0"/>
                <iidm:temporaryLimit name="_257d56c1-d70a-4a96-b85c-d928ade03ad4" acceptableDuration="60" value="12246.0"/>
            </iidm:currentLimits2>
        </iidm:twoWindingsTransformer>
    </iidm:substation>
    <iidm:substation id="_045beb3a-c766-11e1-8775-005056c00008" name="Minas Tirith" country="GB" geographicalTags="_0472a781-c766-11e1-8775-005056c00008">
        <iidm:voltageLevel id="_048a9c58-c766-11e1-8775-005056c00008" name="MNT132KV" nominalV="132.0" topologyKind="BUS_BREAKER">
            <iidm:busBreakerTopology>
                <iidm:bus id="_04555b87-c766-11e1-8775-005056c00008" name="NwCarlsl" v="133.2002" angle="-14.585494"/>
            </iidm:busBreakerTopology>
            <iidm:load id="_0447ee05-c766-11e1-8775-005056c00008" name="NwCarlsl NegG LD" loadType="UNDEFINED" p0="9.0" q0="0.0" bus="_04555b87-c766-11e1-8775-005056c00008" connectableBus="_04555b87-c766-11e1-8775-005056c00008" p="9.0" q="0.0"></iidm:load>
            <iidm:load id="_047a48a8-c766-11e1-8775-005056c00008" name="NwCarlsl LD" loadType="UNDEFINED" p0="30.0" q0="12.0" bus="_04555b87-c766-11e1-8775-005056c00008" connectableBus="_04555b87-c766-11e1-8775-005056c00008" p="30.0" q="12.0"></iidm:load>
        </iidm:voltageLevel>
    </iidm:substation>
    <iidm:substation id="_047120e4-c766-11e1-8775-005056c00008" name="Bywater" country="GB" geographicalTags="_0472a781-c766-11e1-8775-005056c00008">
        <iidm:voltageLevel id="_046c65f4-c766-11e1-8775-005056c00008" name="BYW132KV" nominalV="132.0" topologyKind="BUS_BREAKER">
            <iidm:busBreakerTopology>
                <iidm:bus id="_046b7b91-c766-11e1-8775-005056c00008" name="Blaine" v="126.616516" angle="-10.5192728"/>
            </iidm:busBreakerTopology>
            <iidm:load id="_044ecbd1-c766-11e1-8775-005056c00008" name="Blaine LD" loadType="UNDEFINED" p0="2.0" q0="1.0" bus="_046b7b91-c766-11e1-8775-005056c00008" connectableBus="_046b7b91-c766-11e1-8775-005056c00008" p="2.0" q="1.0"></iidm:load>
        </iidm:voltageLevel>
    </iidm:substation>
    <iidm:substation id="_0467f928-c766-11e1-8775-005056c00008" name="Tirion" country="GB" geographicalTags="_0472a781-c766-11e1-8775-005056c00008">
        <iidm:voltageLevel id="_048bd4da-c766-11e1-8775-005056c00008" name="TIR132KV" nominalV="132.0" topologyKind="BUS_BREAKER">
            <iidm:busBreakerTopology>
                <iidm:bus id="_04667284-c766-11e1-8775-005056c00008" name="Sundial" v="133.4717" angle="-2.1101048"/>
            </iidm:busBreakerTopology>
            <iidm:load id="_046b7b95-c766-11e1-8775-005056c00008" name="Sundial LD" loadType="UNDEFINED" p0="15.0" q0="9.0" bus="_04667284-c766-11e1-8775-005056c00008" connectableBus="_04667284-c766-11e1-8775-005056c00008" p="15.0" q="9.0"></iidm:load>
        </iidm:voltageLevel>
    </iidm:substation>
    <iidm:substation id="_048badc8-c766-11e1-8775-005056c00008" name="White Harbor" country="GB" geographicalTags="_0472a781-c766-11e1-8775-005056c00008">
        <iidm:voltageLevel id="_0488c79a-c766-11e1-8775-005056c00008" name="WHI132KV" nominalV="132.0" topologyKind="BUS_BREAKER">
            <iidm:busBreakerTopology>
                <iidm:bus id="_044a8618-c766-11e1-8775-005056c00008" name="Riversde" v="126.882912" angle="-19.081995"/>
            </iidm:busBreakerTopology>
            <iidm:load id="_045645e2-c766-11e1-8775-005056c00008" name="Riversde LD" loadType="UNDEFINED" p0="51.0" q0="27.0" bus="_044a8618-c766-11e1-8775-005056c00008" connectableBus="_044a8618-c766-11e1-8775-005056c00008" p="51.0" q="27.0"></iidm:load>
        </iidm:voltageLevel>
    </iidm:substation>
    <iidm:substation id="_045e8345-c766-11e1-8775-005056c00008" name="Nobottle" country="GB" geographicalTags="_0472a781-c766-11e1-8775-005056c00008">
        <iidm:voltageLevel id="_04773b6a-c766-11e1-8775-005056c00008" name="NOB132KV" nominalV="132.0" topologyKind="BUS_BREAKER">
            <iidm:busBreakerTopology>
                <iidm:bus id="_0461b794-c766-11e1-8775-005056c00008" name="Randolph" v="128.468643" angle="-13.7844219"/>
            </iidm:busBreakerTopology>
            <iidm:load id="_04887973-c766-11e1-8775-005056c00008" name="Randolph LD" loadType="UNDEFINED" p0="10.0" q0="5.0" bus="_0461b794-c766-11e1-8775-005056c00008" connectableBus="_0461b794-c766-11e1-8775-005056c00008" p="10.0" q="5.0"></iidm:load>
        </iidm:voltageLevel>
    </iidm:substation>
    <iidm:substation id="_0452c37a-c766-11e1-8775-005056c00008" name="Formenos" country="GB" geographicalTags="_0472a781-c766-11e1-8775-005056c00008">
        <iidm:voltageLevel id="_0478c204-c766-11e1-8775-005056c00008" name="FRM132KV" nominalV="132.0" topologyKind="BUS_BREAKER">
            <iidm:busBreakerTopology>
                <iidm:bus id="_0467f927-c766-11e1-8775-005056c00008" name="WNwPhil2" v="126.58252" angle="-14.3884716"/>
            </iidm:busBreakerTopology>
            <iidm:load id="_0477627b-c766-11e1-8775-005056c00008" name="WNwPhil2 LD" loadType="UNDEFINED" p0="12.0" q0="3.0" bus="_0467f927-c766-11e1-8775-005056c00008" connectableBus="_0467f927-c766-11e1-8775-005056c00008" p="12.0" q="3.0"></iidm:load>
        </iidm:voltageLevel>
    </iidm:substation>
    <iidm:substation id="_046b0666-c766-11e1-8775-005056c00008" name="Vinyamar" country="GB" geographicalTags="_0472a781-c766-11e1-8775-005056c00008">
        <iidm:voltageLevel id="_04479fe8-c766-11e1-8775-005056c00008" name="VIN132KV" nominalV="132.0" topologyKind="BUS_BREAKER">
            <iidm:busBreakerTopology>
                <iidm:bus id="_044ef2e3-c766-11e1-8775-005056c00008" name="Cloverdl" v="126.723633" angle="-9.66302"/>
            </iidm:busBreakerTopology>
            <iidm:load id="_0476781a-c766-11e1-8775-005056c00008" name="Cloverdl LD" loadType="UNDEFINED" p0="43.0" q0="16.0" bus="_044ef2e3-c766-11e1-8775-005056c00008" connectableBus="_044ef2e3-c766-11e1-8775-005056c00008" p="43.0" q="16.0"></iidm:load>
        </iidm:voltageLevel>
    </iidm:substation>
    <iidm:substation id="_046dec9b-c766-11e1-8775-005056c00008" name="Aldburg" country="GB" geographicalTags="_0472a781-c766-11e1-8775-005056c00008">
        <iidm:voltageLevel id="_0483977a-c766-11e1-8775-005056c00008" name="ALD132KV" nominalV="132.0" topologyKind="BUS_BREAKER">
            <iidm:busBreakerTopology>
                <iidm:bus id="_046783f5-c766-11e1-8775-005056c00008" name="Hancock" v="128.113724" angle="-8.302711"/>
            </iidm:busBreakerTopology>
            <iidm:load id="_046b0665-c766-11e1-8775-005056c00008" name="Hancock LD" loadType="UNDEFINED" p0="38.0" q0="25.0" bus="_046783f5-c766-11e1-8775-005056c00008" connectableBus="_046783f5-c766-11e1-8775-005056c00008" p="38.0" q="25.0"></iidm:load>
        </iidm:voltageLevel>
    </iidm:substation>
    <iidm:substation id="_04865696-c766-11e1-8775-005056c00008" name="Scary" country="GB" geographicalTags="_0472a781-c766-11e1-8775-005056c00008">
        <iidm:voltageLevel id="_04544a15-c766-11e1-8775-005056c00008" name="SCA132KV" nominalV="132.0" topologyKind="BUS_BREAKER">
            <iidm:busBreakerTopology>
                <iidm:bus id="_047c4478-c766-11e1-8775-005056c00008" name="WMVernon" v="130.212" angle="-16.10395"/>
            </iidm:busBreakerTopology>
            <iidm:load id="_044bbe92-c766-11e1-8775-005056c00008" name="WMVernon LD" loadType="UNDEFINED" p0="16.0" q0="8.0" bus="_047c4478-c766-11e1-8775-005056c00008" connectableBus="_047c4478-c766-11e1-8775-005056c00008" p="16.0" q="8.0"></iidm:load>
            <iidm:shunt id="_047825c8-c766-11e1-8775-005056c00008" name="WMVernon SC" bPerSection="1.148E-4" maximumSectionCount="10" currentSectionCount="5" voltageRegulatorOn="true" targetV="130.212" targetDeadband="1.0" bus="_047c4478-c766-11e1-8775-005056c00008" connectableBus="_047c4478-c766-11e1-8775-005056c00008" q="-9.732265">
                <iidm:property name="CGMES.RegulatingControl" value="_2a6c1dcd-201b-4911-83b2-c16acc50a0f4"/>
            </iidm:shunt>
        </iidm:voltageLevel>
    </iidm:substation>
    <iidm:substation id="_046030f9-c766-11e1-8775-005056c00008" name="Winterfell" country="GB" geographicalTags="_0472a781-c766-11e1-8775-005056c00008">
        <iidm:voltageLevel id="_044f4102-c766-11e1-8775-005056c00008" name="WIN220KV" nominalV="220.0" topologyKind="BUS_BREAKER">
            <iidm:busBreakerTopology>
                <iidm:bus id="_047ba832-c766-11e1-8775-005056c00008" name="Breed" v="230.999985" angle="5.752662"/>
            </iidm:busBreakerTopology>
            <iidm:generator id="_045868c0-c766-11e1-8775-005056c00008" name="Breed SM" energySource="THERMAL" minP="300.0" maxP="600.0" ratedS="750.0" voltageRegulatorOn="true" targetP="450.0" targetV="230.999985" targetQ="0.0" bus="_047ba832-c766-11e1-8775-005056c00008" connectableBus="_047ba832-c766-11e1-8775-005056c00008" p="-450.0" q="-0.0">
                <iidm:property name="CGMES.GeneratingUnit" value="_f26d4eb3-ebdb-4025-8080-f856ce656b42"/>
                <iidm:property name="CGMES.RegulatingControl" value="_7566f2a7-61eb-42fe-a59a-8276257fdbc6"/>
                <iidm:minMaxReactiveLimits minQ="-225.0" maxQ="640.0"/>
            </iidm:generator>
        </iidm:voltageLevel>
    </iidm:substation>
    <iidm:substation id="_04703680-c766-11e1-8775-005056c00008" name="Brithombar" country="GB" geographicalTags="_0472a781-c766-11e1-8775-005056c00008">
        <iidm:voltageLevel id="_04542300-c766-11e1-8775-005056c00008" name="BRI132KV" nominalV="132.0" topologyKind="BUS_BREAKER">
            <iidm:busBreakerTopology>
                <iidm:bus id="_046a4314-c766-11e1-8775-005056c00008" name="Newcmrst" v="127.620132" angle="-13.6114807"/>
            </iidm:busBreakerTopology>
            <iidm:load id="_044d1e22-c766-11e1-8775-005056c00008" name="Newcmrst LD" loadType="UNDEFINED" p0="17.0" q0="8.0" bus="_046a4314-c766-11e1-8775-005056c00008" connectableBus="_046a4314-c766-11e1-8775-005056c00008" p="17.0" q="8.0"></iidm:load>
        </iidm:voltageLevel>
    </iidm:substation>
    <iidm:substation id="_0480b149-c766-11e1-8775-005056c00008" name="Nindamos" country="GB" geographicalTags="_0472a781-c766-11e1-8775-005056c00008">
        <iidm:voltageLevel id="_04728079-c766-11e1-8775-005056c00008" name="NIN132KV" nominalV="132.0" topologyKind="BUS_BREAKER">
            <iidm:busBreakerTopology>
                <iidm:bus id="_04689567-c766-11e1-8775-005056c00008" name="TannrsCk1" v="138.599991" angle="-1.946908"/>
            </iidm:busBreakerTopology>
            <iidm:generator id="_045ab2b0-c766-11e1-8775-005056c00008" name="TannrsCk SM" energySource="THERMAL" minP="100.0" maxP="400.0" ratedS="500.0" voltageRegulatorOn="true" targetP="220.0" targetV="138.599991" targetQ="0.0" bus="_04689567-c766-11e1-8775-005056c00008" connectableBus="_04689567-c766-11e1-8775-005056c00008" p="-220.0" q="-0.0">
                <iidm:property name="CGMES.GeneratingUnit" value="_56975783-9739-40fc-8ec1-e1de8cb06c9a"/>
                <iidm:property name="CGMES.RegulatingControl" value="_b8449cd9-5a17-497e-bf04-70f728b0f9f2"/>
                <iidm:minMaxReactiveLimits minQ="-150.0" maxQ="450.0"/>
            </iidm:generator>
        </iidm:voltageLevel>
        <iidm:voltageLevel id="_044f8f2a-c766-11e1-8775-005056c00008" name="NIN220KV" nominalV="220.0" topologyKind="BUS_BREAKER">
            <iidm:busBreakerTopology>
                <iidm:bus id="_0455a9a6-c766-11e1-8775-005056c00008" name="TannrsCk2" v="223.3" angle="-0.158602178"/>
            </iidm:busBreakerTopology>
            <iidm:generator id="_0483224a-c766-11e1-8775-005056c00008" name="TannrsCk SM" energySource="THERMAL" minP="100.0" maxP="400.0" ratedS="500.0" voltageRegulatorOn="true" targetP="314.0" targetV="223.3" targetQ="0.0" bus="_0455a9a6-c766-11e1-8775-005056c00008" connectableBus="_0455a9a6-c766-11e1-8775-005056c00008" p="-314.0" q="-0.0">
                <iidm:property name="CGMES.GeneratingUnit" value="_05df66ba-3f64-40cb-8b18-c66d26c4e2c1"/>
                <iidm:property name="CGMES.RegulatingControl" value="_c1d29442-5f57-41d1-bb60-4b74b4994c20"/>
                <iidm:minMaxReactiveLimits minQ="-150.0" maxQ="450.0"/>
            </iidm:generator>
        </iidm:voltageLevel>
        <iidm:twoWindingsTransformer id="_045b7604-c766-11e1-8775-005056c00008" name="26-25" r="0.0" x="6.6559680000000006" g="0.0" b="0.0" ratedU1="220.0" ratedU2="132.0" bus1="_0455a9a6-c766-11e1-8775-005056c00008" connectableBus1="_0455a9a6-c766-11e1-8775-005056c00008" voltageLevelId1="_044f8f2a-c766-11e1-8775-005056c00008" bus2="_04689567-c766-11e1-8775-005056c00008" connectableBus2="_04689567-c766-11e1-8775-005056c00008" voltageLevelId2="_04728079-c766-11e1-8775-005056c00008">
            <iidm:ratioTapChanger lowTapPosition="1" tapPosition="1" loadTapChangingCapabilities="false">
                <iidm:step r="0.0" x="0.0" g="0.0" b="0.0" rho="1.041666688368056"/>
                <iidm:step r="0.0" x="0.0" g="0.0" b="0.0" rho="1.0"/>
                <iidm:step r="0.0" x="0.0" g="0.0" b="0.0" rho="0.9615384430473377"/>
                <iidm:step r="0.0" x="0.0" g="0.0" b="0.0" rho="0.9259258916323744"/>
                <iidm:step r="0.0" x="0.0" g="0.0" b="0.0" rho="0.8928570950255128"/>
            </iidm:ratioTapChanger>
            <iidm:currentLimits1 permanentLimit="1312.0">
                <iidm:temporaryLimit name="_ac81f7ca-04be-4b10-838b-fd5171e1b0f7" acceptableDuration="900" value="1508.0"/>
                <iidm:temporaryLimit name="_2a113652-9eee-4aa3-8fc5-b6ebccfafda5" acceptableDuration="60" value="1837.0"/>
            </iidm:currentLimits1>
            <iidm:currentLimits2 permanentLimit="2186.0">
                <iidm:temporaryLimit name="_f357d7c9-5bbd-4c6b-960a-7384577353db" acceptableDuration="900" value="2514.0"/>
                <iidm:temporaryLimit name="_42b6b196-1272-48c6-a627-914c00e3fe3e" acceptableDuration="60" value="3061.0"/>
            </iidm:currentLimits2>
        </iidm:twoWindingsTransformer>
    </iidm:substation>
    <iidm:substation id="_04553470-c766-11e1-8775-005056c00008" name="Haysend" country="GB" geographicalTags="_0472a781-c766-11e1-8775-005056c00008">
        <iidm:voltageLevel id="_0471bd23-c766-11e1-8775-005056c00008" name="HAY132KV" nominalV="132.0" topologyKind="BUS_BREAKER">
            <iidm:busBreakerTopology>
                <iidm:bus id="_044a8615-c766-11e1-8775-005056c00008" name="Sporn1" v="136.62" angle="-0.0"/>
            </iidm:busBreakerTopology>
            <iidm:generator id="_048aea70-c766-11e1-8775-005056c00008" name="Sporn SM" energySource="THERMAL" minP="400.0" maxP="800.0" ratedS="1000.0" voltageRegulatorOn="true" targetP="513.437439" targetV="136.62" targetQ="-62.1325531" bus="_044a8615-c766-11e1-8775-005056c00008" connectableBus="_044a8615-c766-11e1-8775-005056c00008" p="-513.437439" q="62.1325531">
                <iidm:property name="CGMES.GeneratingUnit" value="_27799004-aa1e-4889-ba95-ee6fdae64895"/>
                <iidm:property name="CGMES.RegulatingControl" value="_827a9c80-183d-4e33-9e73-ef0aab3dfb13"/>
                <iidm:minMaxReactiveLimits minQ="-300.0" maxQ="850.0"/>
            </iidm:generator>
        </iidm:voltageLevel>
        <iidm:voltageLevel id="_0449e9d2-c766-11e1-8775-005056c00008" name="HAY220KV" nominalV="220.0" topologyKind="BUS_BREAKER">
            <iidm:busBreakerTopology>
                <iidm:bus id="_044aad28-c766-11e1-8775-005056c00008" name="Sporn2" v="219.706345" angle="-2.41812253"/>
            </iidm:busBreakerTopology>
            <iidm:danglingLine id="_0482fb33-c766-11e1-8775-005056c00008" name="68-116" p0="184.0" q0="0.0" r="0.16456" x="1.9602" g="0.0" b="3.38843E-4" ucteXnodeCode="XWE_BR21" bus="_044aad28-c766-11e1-8775-005056c00008" connectableBus="_044aad28-c766-11e1-8775-005056c00008" p="184.11572091711315" q="-14.972515845786626">
                <iidm:currentLimits permanentLimit="1000.0">
                    <iidm:temporaryLimit name="_7c27ab8a-8043-4a55-851d-72adb14d9f4d" acceptableDuration="900" value="1150.0"/>
                    <iidm:temporaryLimit name="_f4458b8d-a0e1-4adc-977f-14a07b3c44e9" acceptableDuration="60" value="1400.0"/>
                </iidm:currentLimits>
            </iidm:danglingLine>
        </iidm:voltageLevel>
        <iidm:twoWindingsTransformer id="_044f6815-c766-11e1-8775-005056c00008" name="68-69" r="0.0" x="6.44688" g="0.0" b="0.0" ratedU1="220.0" ratedU2="132.0" bus1="_044aad28-c766-11e1-8775-005056c00008" connectableBus1="_044aad28-c766-11e1-8775-005056c00008" voltageLevelId1="_0449e9d2-c766-11e1-8775-005056c00008" bus2="_044a8615-c766-11e1-8775-005056c00008" connectableBus2="_044a8615-c766-11e1-8775-005056c00008" voltageLevelId2="_0471bd23-c766-11e1-8775-005056c00008">
            <iidm:ratioTapChanger lowTapPosition="1" tapPosition="1" loadTapChangingCapabilities="false">
                <iidm:step r="0.0" x="0.0" g="0.0" b="0.0" rho="1.06951871657754"/>
                <iidm:step r="0.0" x="0.0" g="0.0" b="0.0" rho="1.0"/>
                <iidm:step r="0.0" x="0.0" g="0.0" b="0.0" rho="0.9389671361502347"/>
                <iidm:step r="0.0" x="0.0" g="0.0" b="0.0" rho="0.8849557522123894"/>
                <iidm:step r="0.0" x="0.0" g="0.0" b="0.0" rho="0.8368200836820083"/>
                <iidm:step r="0.0" x="0.0" g="0.0" b="0.0" rho="0.7936507936507936"/>
                <iidm:step r="0.0" x="0.0" g="0.0" b="0.0" rho="0.7547169811320755"/>
            </iidm:ratioTapChanger>
            <iidm:currentLimits1 permanentLimit="1312.0">
                <iidm:temporaryLimit name="_836577b9-5365-40b9-8bb1-0c635896faab" acceptableDuration="900" value="1508.0"/>
                <iidm:temporaryLimit name="_4ff8ded8-043c-467c-9730-a5f583b4631d" acceptableDuration="60" value="1837.0"/>
            </iidm:currentLimits1>
            <iidm:currentLimits2 permanentLimit="2186.0">
                <iidm:temporaryLimit name="_10213be6-3bb3-4f54-9d8e-67a412744ad4" acceptableDuration="900" value="2514.0"/>
                <iidm:temporaryLimit name="_5e63ebf0-b379-4249-91a8-f8f8c88302e7" acceptableDuration="60" value="3061.0"/>
            </iidm:currentLimits2>
        </iidm:twoWindingsTransformer>
    </iidm:substation>
    <iidm:substation id="_046fe861-c766-11e1-8775-005056c00008" name="Bree" country="GB" geographicalTags="_0472a781-c766-11e1-8775-005056c00008">
        <iidm:voltageLevel id="_046bf0c5-c766-11e1-8775-005056c00008" name="BRE132KV" nominalV="132.0" topologyKind="BUS_BREAKER">
            <iidm:busBreakerTopology>
                <iidm:bus id="_044b9787-c766-11e1-8775-005056c00008" name="Natrium" v="131.702545" angle="-6.50974226"/>
            </iidm:busBreakerTopology>
            <iidm:load id="_04547126-c766-11e1-8775-005056c00008" name="Natrium LD" loadType="UNDEFINED" p0="77.0" q0="14.0" bus="_044b9787-c766-11e1-8775-005056c00008" connectableBus="_044b9787-c766-11e1-8775-005056c00008" p="77.0" q="14.0"></iidm:load>
        </iidm:voltageLevel>
    </iidm:substation>
    <iidm:substation id="_047fedfa-c766-11e1-8775-005056c00008" name="Mithlond" country="GB" geographicalTags="_0472a781-c766-11e1-8775-005056c00008">
        <iidm:voltageLevel id="_0485e169-c766-11e1-8775-005056c00008" name="MIT132KV" nominalV="132.0" topologyKind="BUS_BREAKER">
            <iidm:busBreakerTopology>
                <iidm:bus id="_0480d858-c766-11e1-8775-005056c00008" name="Sterling" v="130.059479" angle="-19.1328583"/>
            </iidm:busBreakerTopology>
            <iidm:load id="_045d4ac9-c766-11e1-8775-005056c00008" name="Sterling LD" loadType="UNDEFINED" p0="31.0" q0="17.0" bus="_0480d858-c766-11e1-8775-005056c00008" connectableBus="_0480d858-c766-11e1-8775-005056c00008" p="31.0" q="17.0"></iidm:load>
        </iidm:voltageLevel>
    </iidm:substation>
    <iidm:substation id="_0460f447-c766-11e1-8775-005056c00008" name="Pincup" country="GB" geographicalTags="_0472a781-c766-11e1-8775-005056c00008">
        <iidm:voltageLevel id="_045ed163-c766-11e1-8775-005056c00008" name="PIN132KV" nominalV="132.0" topologyKind="BUS_BREAKER">
            <iidm:busBreakerTopology>
                <iidm:bus id="_045c8773-c766-11e1-8775-005056c00008" name="Switchbk" v="130.706055" angle="-1.35899651"/>
            </iidm:busBreakerTopology>
            <iidm:load id="_0466246a-c766-11e1-8775-005056c00008" name="Switchbk LD" loadType="UNDEFINED" p0="30.0" q0="16.0" bus="_045c8773-c766-11e1-8775-005056c00008" connectableBus="_045c8773-c766-11e1-8775-005056c00008" p="30.0" q="16.0"></iidm:load>
        </iidm:voltageLevel>
    </iidm:substation>
    <iidm:substation id="_0471e439-c766-11e1-8775-005056c00008" name="Casterly Rock" country="GB" geographicalTags="_0472a781-c766-11e1-8775-005056c00008">
        <iidm:voltageLevel id="_04773b62-c766-11e1-8775-005056c00008" name="CAS132KV" nominalV="132.0" topologyKind="BUS_BREAKER">
            <iidm:busBreakerTopology>
                <iidm:bus id="_044b7076-c766-11e1-8775-005056c00008" name="Bradley" v="135.103149" angle="-2.59428334"/>
            </iidm:busBreakerTopology>
            <iidm:load id="_046adf5a-c766-11e1-8775-005056c00008" name="Bradley LD" loadType="UNDEFINED" p0="34.0" q0="8.0" bus="_044b7076-c766-11e1-8775-005056c00008" connectableBus="_044b7076-c766-11e1-8775-005056c00008" p="34.0" q="8.0"></iidm:load>
        </iidm:voltageLevel>
    </iidm:substation>
    <iidm:substation id="_047cb9a6-c766-11e1-8775-005056c00008" name="Lannisport" country="GB" geographicalTags="_0472a781-c766-11e1-8775-005056c00008">
        <iidm:voltageLevel id="_04819ba0-c766-11e1-8775-005056c00008" name="LAN132KV" nominalV="132.0" topologyKind="BUS_BREAKER">
            <iidm:busBreakerTopology>
                <iidm:bus id="_046c8d0b-c766-11e1-8775-005056c00008" name="Mullin" v="127.143242" angle="-16.2140541"/>
            </iidm:busBreakerTopology>
            <iidm:load id="_047a48a2-c766-11e1-8775-005056c00008" name="Mullin LD" loadType="UNDEFINED" p0="17.0" q0="7.0" bus="_046c8d0b-c766-11e1-8775-005056c00008" connectableBus="_046c8d0b-c766-11e1-8775-005056c00008" p="17.0" q="7.0"></iidm:load>
        </iidm:voltageLevel>
    </iidm:substation>
    <iidm:substation id="_0449c2c6-c766-11e1-8775-005056c00008" name="Armenelos" country="GB" geographicalTags="_0472a781-c766-11e1-8775-005056c00008">
        <iidm:voltageLevel id="_04765109-c766-11e1-8775-005056c00008" name="ARM132KV" nominalV="132.0" topologyKind="BUS_BREAKER">
            <iidm:busBreakerTopology>
                <iidm:bus id="_0468bc75-c766-11e1-8775-005056c00008" name="Glen Lyn" v="134.243988" angle="-1.97640443"/>
            </iidm:busBreakerTopology>
            <iidm:generator id="_044cd00a-c766-11e1-8775-005056c00008" name="Glen Lyn SM" energySource="THERMAL" minP="200.0" maxP="400.0" ratedS="500.0" voltageRegulatorOn="true" targetP="252.0" targetV="134.243988" targetQ="0.0" bus="_0468bc75-c766-11e1-8775-005056c00008" connectableBus="_0468bc75-c766-11e1-8775-005056c00008" p="-252.0" q="-0.0">
                <iidm:property name="CGMES.GeneratingUnit" value="_e54b499b-436c-4b89-9803-b1d75e2fa364"/>
                <iidm:property name="CGMES.RegulatingControl" value="_32c8ab65-80f7-4c17-b3f5-ff075cce0ba5"/>
                <iidm:minMaxReactiveLimits minQ="-150.0" maxQ="450.0"/>
            </iidm:generator>
            <iidm:load id="_04566cf5-c766-11e1-8775-005056c00008" name="Glen Lyn LD" loadType="UNDEFINED" p0="37.0" q0="18.0" bus="_0468bc75-c766-11e1-8775-005056c00008" connectableBus="_0468bc75-c766-11e1-8775-005056c00008" p="37.0" q="18.0"></iidm:load>
        </iidm:voltageLevel>
    </iidm:substation>
    <iidm:substation id="_0474f171-c766-11e1-8775-005056c00008" name="Erebor" country="GB" geographicalTags="_0472a781-c766-11e1-8775-005056c00008">
        <iidm:voltageLevel id="_044f6818-c766-11e1-8775-005056c00008" name="ERB132KV" nominalV="132.0" topologyKind="BUS_BREAKER">
            <iidm:busBreakerTopology>
                <iidm:bus id="_046b066a-c766-11e1-8775-005056c00008" name="Kankakee" v="130.82402" angle="-16.7107086"/>
            </iidm:busBreakerTopology>
            <iidm:load id="_044ea4c0-c766-11e1-8775-005056c00008" name="Kankakee LD" loadType="UNDEFINED" p0="52.0" q0="22.0" bus="_046b066a-c766-11e1-8775-005056c00008" connectableBus="_046b066a-c766-11e1-8775-005056c00008" p="52.0" q="22.0"></iidm:load>
        </iidm:voltageLevel>
    </iidm:substation>
    <iidm:substation id="_045fe2d2-c766-11e1-8775-005056c00008" name="Ollivanders" country="GB" geographicalTags="_0472a781-c766-11e1-8775-005056c00008">
        <iidm:voltageLevel id="_0465611a-c766-11e1-8775-005056c00008" name="OLL132KV" nominalV="132.0" topologyKind="BUS_BREAKER">
            <iidm:busBreakerTopology>
                <iidm:bus id="_04876809-c766-11e1-8775-005056c00008" name="Roanoke" v="127.423" angle="-9.429042"/>
            </iidm:busBreakerTopology>
            <iidm:load id="_0484cffb-c766-11e1-8775-005056c00008" name="Roanoke LD" loadType="UNDEFINED" p0="31.0" q0="26.0" bus="_04876809-c766-11e1-8775-005056c00008" connectableBus="_04876809-c766-11e1-8775-005056c00008" p="31.0" q="26.0"></iidm:load>
            <iidm:shunt id="_0489d903-c766-11e1-8775-005056c00008" name="Roanoke SC" bPerSection="2.296E-4" maximumSectionCount="10" currentSectionCount="5" voltageRegulatorOn="true" targetV="127.423" targetDeadband="1.0" bus="_04876809-c766-11e1-8775-005056c00008" connectableBus="_04876809-c766-11e1-8775-005056c00008" q="-18.63964">
                <iidm:property name="CGMES.RegulatingControl" value="_5be38d1a-9d01-42d8-b8bb-e9a26cfbcf1a"/>
            </iidm:shunt>
        </iidm:voltageLevel>
    </iidm:substation>
    <iidm:substation id="_046cdb28-c766-11e1-8775-005056c00008" name="Pelargir" country="GB" geographicalTags="_0472a781-c766-11e1-8775-005056c00008">
        <iidm:voltageLevel id="_048719e8-c766-11e1-8775-005056c00008" name="PEL132KV" nominalV="132.0" topologyKind="BUS_BREAKER">
            <iidm:busBreakerTopology>
                <iidm:bus id="_04577e63-c766-11e1-8775-005056c00008" name="Howard" v="123.81781" angle="-20.9805279"/>
            </iidm:busBreakerTopology>
            <iidm:load id="_047a219a-c766-11e1-8775-005056c00008" name="Howard LD" loadType="UNDEFINED" p0="37.0" q0="23.0" bus="_04577e63-c766-11e1-8775-005056c00008" connectableBus="_04577e63-c766-11e1-8775-005056c00008" p="37.0" q="23.0"></iidm:load>
            <iidm:load id="_04488a49-c766-11e1-8775-005056c00008" name="Howard NegG LD" loadType="UNDEFINED" p0="59.0" q0="0.0" bus="_04577e63-c766-11e1-8775-005056c00008" connectableBus="_04577e63-c766-11e1-8775-005056c00008" p="59.0" q="0.0"></iidm:load>
        </iidm:voltageLevel>
    </iidm:substation>
    <iidm:substation id="_044e56a1-c766-11e1-8775-005056c00008" name="Crickhollow" country="GB" geographicalTags="_0472a781-c766-11e1-8775-005056c00008">
        <iidm:voltageLevel id="_048a272b-c766-11e1-8775-005056c00008" name="CRI220KV" nominalV="220.0" topologyKind="BUS_BREAKER">
            <iidm:busBreakerTopology>
                <iidm:bus id="_0453d4e3-c766-11e1-8775-005056c00008" name="Kanawha" v="218.673645" angle="-1.87761688"/>
            </iidm:busBreakerTopology>
        </iidm:voltageLevel>
        <iidm:voltageLevel id="_046efe09-c766-11e1-8775-005056c00008" name="CRI132KV" nominalV="132.0" topologyKind="BUS_BREAKER">
            <iidm:busBreakerTopology>
                <iidm:bus id="_04898ae9-c766-11e1-8775-005056c00008" name="CabinCrk" v="137.28" angle="-1.03307128"/>
            </iidm:busBreakerTopology>
            <iidm:generator id="_045868c1-c766-11e1-8775-005056c00008" name="CabinCrk SM" energySource="THERMAL" minP="300.0" maxP="600.0" ratedS="750.0" voltageRegulatorOn="true" targetP="477.0" targetV="137.28" targetQ="0.0" bus="_04898ae9-c766-11e1-8775-005056c00008" connectableBus="_04898ae9-c766-11e1-8775-005056c00008" p="-477.0" q="-0.0">
                <iidm:property name="CGMES.GeneratingUnit" value="_a6ec9760-88da-48df-a23f-7877e7c85ccd"/>
                <iidm:property name="CGMES.RegulatingControl" value="_e6131af8-c298-413b-84e3-4e21c3b6b06f"/>
                <iidm:minMaxReactiveLimits minQ="-225.0" maxQ="640.0"/>
            </iidm:generator>
            <iidm:load id="_04747c44-c766-11e1-8775-005056c00008" name="CabinCrk LD" loadType="UNDEFINED" p0="130.0" q0="26.0" bus="_04898ae9-c766-11e1-8775-005056c00008" connectableBus="_04898ae9-c766-11e1-8775-005056c00008" p="130.0" q="26.0"></iidm:load>
        </iidm:voltageLevel>
        <iidm:twoWindingsTransformer id="_0488c79b-c766-11e1-8775-005056c00008" name="81-80" r="0.0" x="6.44688" g="0.0" b="0.0" ratedU1="220.0" ratedU2="132.0" bus1="_0453d4e3-c766-11e1-8775-005056c00008" connectableBus1="_0453d4e3-c766-11e1-8775-005056c00008" voltageLevelId1="_048a272b-c766-11e1-8775-005056c00008" bus2="_04898ae9-c766-11e1-8775-005056c00008" connectableBus2="_04898ae9-c766-11e1-8775-005056c00008" voltageLevelId2="_046efe09-c766-11e1-8775-005056c00008">
            <iidm:ratioTapChanger lowTapPosition="1" tapPosition="1" loadTapChangingCapabilities="false">
                <iidm:step r="0.0" x="0.0" g="0.0" b="0.0" rho="1.06951871657754"/>
                <iidm:step r="0.0" x="0.0" g="0.0" b="0.0" rho="1.0"/>
                <iidm:step r="0.0" x="0.0" g="0.0" b="0.0" rho="0.9389671361502347"/>
                <iidm:step r="0.0" x="0.0" g="0.0" b="0.0" rho="0.8849557522123894"/>
                <iidm:step r="0.0" x="0.0" g="0.0" b="0.0" rho="0.8368200836820083"/>
                <iidm:step r="0.0" x="0.0" g="0.0" b="0.0" rho="0.7936507936507936"/>
                <iidm:step r="0.0" x="0.0" g="0.0" b="0.0" rho="0.7547169811320755"/>
                <iidm:step r="0.0" x="0.0" g="0.0" b="0.0" rho="0.7194244604316546"/>
                <iidm:step r="0.0" x="0.0" g="0.0" b="0.0" rho="0.6872852233676976"/>
                <iidm:step r="0.0" x="0.0" g="0.0" b="0.0" rho="0.6578947368421053"/>
                <iidm:step r="0.0" x="0.0" g="0.0" b="0.0" rho="0.6309148264984227"/>
                <iidm:step r="0.0" x="0.0" g="0.0" b="0.0" rho="0.6060606060606061"/>
                <iidm:step r="0.0" x="0.0" g="0.0" b="0.0" rho="0.5830903790087463"/>
                <iidm:step r="0.0" x="0.0" g="0.0" b="0.0" rho="0.5617977528089888"/>
...